
Version, 8.8.0;

Timestep, 6;

ShadowCalculation,
	AverageOverDaysInFrequency,        !- Calculation Method
	30,        !- Calculation Frequency
	3000;    !- Maximum Figures in Shadow Overlap Calculation

Building,
	bcn, !- Name
	0.0, !- North Axis {deg}
	City, !- Terrain
	, !- Loads Convergence Tolerance Value
	, !- Temperature Convergence Tolerance Value {deltaC}
	FullInteriorAndExteriorWithReflections, !- Solar Distribution or maybe FullExterior
	, !- Maximum Number of Warmup Days
	; !- Minimum Number of Warmup Days

Sizing:Parameters,
	1.25,     !- Heating Sizing Factor
	1.15;     !- Cooling Sizing Factor

Site:Location,
	BARCELONA	ESP,
	41.28,    !Latitude
	2.07,   !Longitude
	1.0, !Time Zone
	6.0;   !Elevation

 SizingPeriod:DesignDay,
  BARCELONA Ann Htg 99.6% Condns DB,     !- Name
          1,      !- Month
         21,      !- Day of Month
  WinterDesignDay,!- Day Type
        0.9,      !- Maximum Dry-Bulb Temperature {C}
        0.0,      !- Daily Dry-Bulb Temperature Range {C}
 DefaultMultipliers, !- Dry-Bulb Temperature Range Modifier Type
           ,      !- Dry-Bulb Temperature Range Modifier Schedule Name
    Wetbulb,      !- Humidity Condition Type
        0.9,      !- Wetbulb at Maximum Dry-Bulb {C}
           ,      !- Humidity Indicating Day Schedule Name
           ,      !- Humidity Ratio at Maximum Dry-Bulb {kgWater/kgDryAir}
           ,      !- Enthalpy at Maximum Dry-Bulb {J/kg}
           ,      !- Daily Wet-Bulb Temperature Range {deltaC}
    101253.,      !- Barometric Pressure {Pa}
        4.3,      !- Wind Speed {m/s} design conditions vs. traditional 6.71 m/s (15 mph)
        350,      !- Wind Direction {Degrees; N=0, S=180}
         No,      !- Rain {Yes/No}
         No,      !- Snow on ground {Yes/No}
         No,      !- Daylight Savings Time Indicator
  ASHRAEClearSky, !- Solar Model Indicator
           ,      !- Beam Solar Day Schedule Name
           ,      !- Diffuse Solar Day Schedule Name
           ,      !- ASHRAE Clear Sky Optical Depth for Beam Irradiance (taub)
           ,      !- ASHRAE Clear Sky Optical Depth for Diffuse Irradiance (taud)
       0.00;      !- Clearness {0.0 to 1.1}

 SizingPeriod:DesignDay,
  BARCELONA Ann Hum_n 99.6% Condns DP=>MCDB,     !- Name
          1,      !- Month
         21,      !- Day of Month
  WinterDesignDay,!- Day Type
        5.5,      !- Maximum Dry-Bulb Temperature {C}
        0.0,      !- Daily Dry-Bulb Temperature Range {C}
 DefaultMultipliers, !- Dry-Bulb Temperature Range Modifier Type
           ,      !- Dry-Bulb Temperature Range Modifier Schedule Name
    Dewpoint,     !- Humidity Condition Type
       -7.1,      !- Dewpoint at Maximum Dry-Bulb {C}
           ,      !- Humidity Indicating Day Schedule Name
           ,      !- Humidity Ratio at Maximum Dry-Bulb {kgWater/kgDryAir}
           ,      !- Enthalpy at Maximum Dry-Bulb {J/kg}
           ,      !- Daily Wet-Bulb Temperature Range {deltaC}
    101253.,      !- Barometric Pressure {Pa}
        4.3,      !- Wind Speed {m/s} design conditions vs. traditional 6.71 m/s (15 mph)
        350,      !- Wind Direction {Degrees; N=0, S=180}
         No,      !- Rain {Yes/No}
         No,      !- Snow on ground {Yes/No}
         No,      !- Daylight Savings Time Indicator
  ASHRAEClearSky, !- Solar Model Indicator
           ,      !- Beam Solar Day Schedule Name
           ,      !- Diffuse Solar Day Schedule Name
           ,      !- ASHRAE Clear Sky Optical Depth for Beam Irradiance (taub)
           ,      !- ASHRAE Clear Sky Optical Depth for Diffuse Irradiance (taud)
       0.00;      !- Clearness {0.0 to 1.1}

 SizingPeriod:DesignDay,
  BARCELONA Ann Htg Wind 99.6% Condns WS=>MCDB,     !- Name
          1,      !- Month
         21,      !- Day of Month
  WinterDesignDay,!- Day Type
       11.2,      !- Maximum Dry-Bulb Temperature {C}
        0.0,      !- Daily Dry-Bulb Temperature Range {C}
 DefaultMultipliers, !- Dry-Bulb Temperature Range Modifier Type
           ,      !- Dry-Bulb Temperature Range Modifier Schedule Name
    Wetbulb,      !- Humidity Condition Type
       11.2,      !- Wetbulb at Maximum Dry-Bulb {C}
           ,      !- Humidity Indicating Day Schedule Name
           ,      !- Humidity Ratio at Maximum Dry-Bulb {kgWater/kgDryAir}
           ,      !- Enthalpy at Maximum Dry-Bulb {J/kg}
           ,      !- Daily Wet-Bulb Temperature Range {deltaC}
    101253.,      !- Barometric Pressure {Pa}
       10.9,      !- Wind Speed {m/s} design conditions vs. traditional 6.71 m/s (15 mph)
        350,      !- Wind Direction {Degrees; N=0, S=180}
         No,      !- Rain {Yes/No}
         No,      !- Snow on ground {Yes/No}
         No,      !- Daylight Savings Time Indicator
  ASHRAEClearSky, !- Solar Model Indicator
           ,      !- Beam Solar Day Schedule Name
           ,      !- Diffuse Solar Day Schedule Name
           ,      !- ASHRAE Clear Sky Optical Depth for Beam Irradiance (taub)
           ,      !- ASHRAE Clear Sky Optical Depth for Diffuse Irradiance (taud)
       0.00;      !- Clearness {0.0 to 1.1}

 SizingPeriod:DesignDay,
  BARCELONA Ann Clg .4% Condns DB=>MWB,     !- Name
          8,      !- Month
         21,      !- Day of Month
  SummerDesignDay,!- Day Type
       30.2,      !- Maximum Dry-Bulb Temperature {C}
        7.7,      !- Daily Dry-Bulb Temperature Range {C}
 DefaultMultipliers, !- Dry-Bulb Temperature Range Modifier Type
           ,      !- Dry-Bulb Temperature Range Modifier Schedule Name
    Wetbulb,      !- Humidity Condition Type
       23.8,      !- Wetbulb at Maximum Dry-Bulb {C}
           ,      !- Humidity Indicating Day Schedule Name
           ,      !- Humidity Ratio at Maximum Dry-Bulb {kgWater/kgDryAir}
           ,      !- Enthalpy at Maximum Dry-Bulb {J/kg}
           ,      !- Daily Wet-Bulb Temperature Range {deltaC}
    101253.,      !- Barometric Pressure {Pa}
        4.4,      !- Wind Speed {m/s} design conditions vs. traditional 3.35 m/s (7mph)
        210,      !- Wind Direction {Degrees; N=0, S=180}
         No,      !- Rain {Yes/No}
         No,      !- Snow on ground {Yes/No}
         No,      !- Daylight Savings Time Indicator
       ASHRAETau, !- Solar Model Indicator
           ,      !- Beam Solar Day Schedule Name
           ,      !- Diffuse Solar Day Schedule Name
      0.492,      !- ASHRAE Clear Sky Optical Depth for Beam Irradiance (taub)
      1.927;      !- ASHRAE Clear Sky Optical Depth for Diffuse Irradiance (taud)

 SizingPeriod:DesignDay,
  BARCELONA Ann Clg .4% Condns WB=>MDB,     !- Name
          8,      !- Month
         21,      !- Day of Month
  SummerDesignDay,!- Day Type
       28.7,      !- Maximum Dry-Bulb Temperature {C}
        7.7,      !- Daily Dry-Bulb Temperature Range {C}
 DefaultMultipliers, !- Dry-Bulb Temperature Range Modifier Type
           ,      !- Dry-Bulb Temperature Range Modifier Schedule Name
    Wetbulb,      !- Humidity Condition Type
       25.4,      !- Wetbulb at Maximum Dry-Bulb {C}
           ,      !- Humidity Indicating Day Schedule Name
           ,      !- Humidity Ratio at Maximum Dry-Bulb {kgWater/kgDryAir}
           ,      !- Enthalpy at Maximum Dry-Bulb {J/kg}
           ,      !- Daily Wet-Bulb Temperature Range {deltaC}
    101253.,      !- Barometric Pressure {Pa}
        4.4,      !- Wind Speed {m/s} design conditions vs. traditional 3.35 m/s (7mph)
        210,      !- Wind Direction {Degrees; N=0, S=180}
         No,      !- Rain {Yes/No}
         No,      !- Snow on ground {Yes/No}
         No,      !- Daylight Savings Time Indicator
       ASHRAETau, !- Solar Model Indicator
           ,      !- Beam Solar Day Schedule Name
           ,      !- Diffuse Solar Day Schedule Name
      0.492,      !- ASHRAE Clear Sky Optical Depth for Beam Irradiance (taub)
      1.927;      !- ASHRAE Clear Sky Optical Depth for Diffuse Irradiance (taud)

 SizingPeriod:DesignDay,
  BARCELONA Ann Clg .4% Condns DP=>MDB,     !- Name
          8,      !- Month
         21,      !- Day of Month
  SummerDesignDay,!- Day Type
       27.8,      !- Maximum Dry-Bulb Temperature {C}
        7.7,      !- Daily Dry-Bulb Temperature Range {C}
 DefaultMultipliers, !- Dry-Bulb Temperature Range Modifier Type
           ,      !- Dry-Bulb Temperature Range Modifier Schedule Name
    Dewpoint,     !- Humidity Condition Type
       24.2,      !- Dewpoint at Maximum Dry-Bulb {C}
           ,      !- Humidity Indicating Day Schedule Name
           ,      !- Humidity Ratio at Maximum Dry-Bulb {kgWater/kgDryAir}
           ,      !- Enthalpy at Maximum Dry-Bulb {J/kg}
           ,      !- Daily Wet-Bulb Temperature Range {deltaC}
    101253.,      !- Barometric Pressure {Pa}
        4.4,      !- Wind Speed {m/s} design conditions vs. traditional 3.35 m/s (7mph)
        210,      !- Wind Direction {Degrees; N=0, S=180}
         No,      !- Rain {Yes/No}
         No,      !- Snow on ground {Yes/No}
         No,      !- Daylight Savings Time Indicator
       ASHRAETau, !- Solar Model Indicator
           ,      !- Beam Solar Day Schedule Name
           ,      !- Diffuse Solar Day Schedule Name
      0.492,      !- ASHRAE Clear Sky Optical Depth for Beam Irradiance (taub)
      1.927;      !- ASHRAE Clear Sky Optical Depth for Diffuse Irradiance (taud)

 SizingPeriod:DesignDay,
  BARCELONA Ann Clg .4% Condns Enth=>MDB,     !- Name
          8,      !- Month
         21,      !- Day of Month
  SummerDesignDay,!- Day Type
       28.9,      !- Maximum Dry-Bulb Temperature {C}
        7.7,      !- Daily Dry-Bulb Temperature Range {C}
 DefaultMultipliers, !- Dry-Bulb Temperature Range Modifier Type
           ,      !- Dry-Bulb Temperature Range Modifier Schedule Name
   Enthalpy,      !- Humidity Condition Type
           ,      !- Wetbulb or Dewpoint at Maximum Dry-Bulb
           ,      !- Humidity Indicating Day Schedule Name
           ,      !- Humidity Ratio at Maximum Dry-Bulb {kgWater/kgDryAir}
    77700.0,      !- Enthalpy at Maximum Dry-Bulb {J/kg}
           ,      !- Daily Wet-Bulb Temperature Range {deltaC}
    101253.,      !- Barometric Pressure {Pa}
        4.4,      !- Wind Speed {m/s} design conditions vs. traditional 3.35 m/s (7mph)
        210,      !- Wind Direction {Degrees; N=0, S=180}
         No,      !- Rain {Yes/No}
         No,      !- Snow on ground {Yes/No}
         No,      !- Daylight Savings Time Indicator
       ASHRAETau, !- Solar Model Indicator
           ,      !- Beam Solar Day Schedule Name
           ,      !- Diffuse Solar Day Schedule Name
      0.492,      !- ASHRAE Clear Sky Optical Depth for Beam Irradiance (taub)
      1.927;      !- ASHRAE Clear Sky Optical Depth for Diffuse Irradiance (taud)


SimulationControl,
	Yes,    !- Do Zone Sizing Calculation
	Yes,  !- Do System Sizing Calculation
	Yes,   !- Do Plant Sizing Calculation
	No,  !- Run Simulation for Sizing Periods
	Yes; !- Run Simulation for Weather File Run Periods

RunPeriod,
	customRun,    !- Name
	1,   !- Begin Month
	1,    !- Begin Day of Month
	12, !- End Month
	31,   !- End Day of Month
	UseWeatherFile,   !- Day of Week for Start Day
	Yes,              !- Use Weather File Holidays and Special Days
	Yes,              !- Use Weather File Daylight Saving Period
	No,               !- Apply Weekend Holiday Rule
	Yes,              !- Use Weather File Rain Indicators
	Yes;              !- Use Weather File Snow Indicators
ScheduleTypeLimits,
  TEMPERATURE 30,   !- name
  ,   !- - Lower Limit Value {BasedOnField A3}
  ,   !- - Upper Limit Value {BasedOnField A3}
  Continuous,   !- - Numeric Type
  temperature;   !- 

ScheduleTypeLimits,
  ANY NUMBER;   !- name

ScheduleTypeLimits,
  TEMPERATURE 40,   !- name
  ,   !- - Lower Limit Value {BasedOnField A3}
  ,   !- - Upper Limit Value {BasedOnField A3}
  Continuous,   !- - Numeric Type
  temperature;   !- 

ScheduleTypeLimits,
  TEMPERATURE 50,   !- name
  ,   !- - Lower Limit Value {BasedOnField A3}
  ,   !- - Upper Limit Value {BasedOnField A3}
  Continuous,   !- - Numeric Type
  temperature;   !- 

ScheduleTypeLimits,
  TEMPERATURE 8,   !- name
  ,   !- - Lower Limit Value {BasedOnField A3}
  ,   !- - Upper Limit Value {BasedOnField A3}
  Continuous,   !- - Numeric Type
  temperature;   !- 

ScheduleTypeLimits,
  TEMPERATURE 60,   !- name
  ,   !- - Lower Limit Value {BasedOnField A3}
  ,   !- - Upper Limit Value {BasedOnField A3}
  Continuous,   !- - Numeric Type
  temperature;   !- 

ScheduleTypeLimits,
  TEMPERATURE 9,   !- name
  ,   !- - Lower Limit Value {BasedOnField A3}
  ,   !- - Upper Limit Value {BasedOnField A3}
  Continuous,   !- - Numeric Type
  temperature;   !- 

ScheduleTypeLimits,
  TEMPERATURE 19,   !- name
  ,   !- - Lower Limit Value {BasedOnField A3}
  ,   !- - Upper Limit Value {BasedOnField A3}
  Continuous,   !- - Numeric Type
  temperature;   !- 

ScheduleTypeLimits,
  TEMPERATURE 29,   !- name
  ,   !- - Lower Limit Value {BasedOnField A3}
  ,   !- - Upper Limit Value {BasedOnField A3}
  Continuous,   !- - Numeric Type
  temperature;   !- 

ScheduleTypeLimits,
  TEMPERATURE 39,   !- name
  ,   !- - Lower Limit Value {BasedOnField A3}
  ,   !- - Upper Limit Value {BasedOnField A3}
  Continuous,   !- - Numeric Type
  temperature;   !- 

ScheduleTypeLimits,
  TEMPERATURE 1,   !- name
  ,   !- - Lower Limit Value {BasedOnField A3}
  ,   !- - Upper Limit Value {BasedOnField A3}
  Continuous,   !- - Numeric Type
  temperature;   !- 

ScheduleTypeLimits,
  TEMPERATURE 2,   !- name
  ,   !- - Lower Limit Value {BasedOnField A3}
  ,   !- - Upper Limit Value {BasedOnField A3}
  Continuous,   !- - Numeric Type
  temperature;   !- 

ScheduleTypeLimits,
  TEMPERATURE 3,   !- name
  ,   !- - Lower Limit Value {BasedOnField A3}
  ,   !- - Upper Limit Value {BasedOnField A3}
  Continuous,   !- - Numeric Type
  temperature;   !- 

ScheduleTypeLimits,
  TEMPERATURE 4,   !- name
  ,   !- - Lower Limit Value {BasedOnField A3}
  ,   !- - Upper Limit Value {BasedOnField A3}
  Continuous,   !- - Numeric Type
  temperature;   !- 

ScheduleTypeLimits,
  TEMPERATURE 5,   !- name
  ,   !- - Lower Limit Value {BasedOnField A3}
  ,   !- - Upper Limit Value {BasedOnField A3}
  Continuous,   !- - Numeric Type
  temperature;   !- 

ScheduleTypeLimits,
  TEMPERATURE 6,   !- name
  ,   !- - Lower Limit Value {BasedOnField A3}
  ,   !- - Upper Limit Value {BasedOnField A3}
  Continuous,   !- - Numeric Type
  temperature;   !- 

ScheduleTypeLimits,
  CONTROL TYPE,   !- name
  0,   !- - Lower Limit Value {BasedOnField A3}
  4,   !- - Upper Limit Value {BasedOnField A3}
  DISCRETE;   !- 

ScheduleTypeLimits,
  TEMPERATURE 7,   !- name
  ,   !- - Lower Limit Value {BasedOnField A3}
  ,   !- - Upper Limit Value {BasedOnField A3}
  Continuous,   !- - Numeric Type
  temperature;   !- 

ScheduleTypeLimits,
  TEMPERATURE 49,   !- name
  ,   !- - Lower Limit Value {BasedOnField A3}
  ,   !- - Upper Limit Value {BasedOnField A3}
  Continuous,   !- - Numeric Type
  temperature;   !- 

ScheduleTypeLimits,
  TEMPERATURE 59,   !- name
  ,   !- - Lower Limit Value {BasedOnField A3}
  ,   !- - Upper Limit Value {BasedOnField A3}
  Continuous,   !- - Numeric Type
  temperature;   !- 

ScheduleTypeLimits,
  ACTIVITYLEVEL 14,   !- name
  0,   !- - Lower Limit Value {BasedOnField A3}
  ,   !- - Upper Limit Value {BasedOnField A3}
  Continuous,   !- - Numeric Type
  activitylevel;   !- 

ScheduleTypeLimits,
  TEMPERATURE 17,   !- name
  ,   !- - Lower Limit Value {BasedOnField A3}
  ,   !- - Upper Limit Value {BasedOnField A3}
  Continuous,   !- - Numeric Type
  temperature;   !- 

ScheduleTypeLimits,
  TEMPERATURE 27,   !- name
  ,   !- - Lower Limit Value {BasedOnField A3}
  ,   !- - Upper Limit Value {BasedOnField A3}
  Continuous,   !- - Numeric Type
  temperature;   !- 

ScheduleTypeLimits,
  TEMPERATURE 37,   !- name
  ,   !- - Lower Limit Value {BasedOnField A3}
  ,   !- - Upper Limit Value {BasedOnField A3}
  Continuous,   !- - Numeric Type
  temperature;   !- 

ScheduleTypeLimits,
  TEMPERATURE 47,   !- name
  ,   !- - Lower Limit Value {BasedOnField A3}
  ,   !- - Upper Limit Value {BasedOnField A3}
  Continuous,   !- - Numeric Type
  temperature;   !- 

ScheduleTypeLimits,
  TEMPERATURE 57,   !- name
  ,   !- - Lower Limit Value {BasedOnField A3}
  ,   !- - Upper Limit Value {BasedOnField A3}
  Continuous,   !- - Numeric Type
  temperature;   !- 

ScheduleTypeLimits,
  ALWAYS ON DISCRETE LIMITS,   !- name
  0,   !- - Lower Limit Value {BasedOnField A3}
  1,   !- - Upper Limit Value {BasedOnField A3}
  Discrete,   !- - Numeric Type
  availability;   !- 

ScheduleTypeLimits,
  ACTIVITYLEVEL 10,   !- name
  0,   !- - Lower Limit Value {BasedOnField A3}
  ,   !- - Upper Limit Value {BasedOnField A3}
  Continuous,   !- - Numeric Type
  activitylevel;   !- 

ScheduleTypeLimits,
  TEMPERATURE 18,   !- name
  ,   !- - Lower Limit Value {BasedOnField A3}
  ,   !- - Upper Limit Value {BasedOnField A3}
  Continuous,   !- - Numeric Type
  temperature;   !- 

ScheduleTypeLimits,
  TEMPERATURE 28,   !- name
  ,   !- - Lower Limit Value {BasedOnField A3}
  ,   !- - Upper Limit Value {BasedOnField A3}
  Continuous,   !- - Numeric Type
  temperature;   !- 

ScheduleTypeLimits,
  ACTIVITYLEVEL 15,   !- name
  0,   !- - Lower Limit Value {BasedOnField A3}
  ,   !- - Upper Limit Value {BasedOnField A3}
  Continuous,   !- - Numeric Type
  activitylevel;   !- 

ScheduleTypeLimits,
  TEMPERATURE 38,   !- name
  ,   !- - Lower Limit Value {BasedOnField A3}
  ,   !- - Upper Limit Value {BasedOnField A3}
  Continuous,   !- - Numeric Type
  temperature;   !- 

ScheduleTypeLimits,
  TEMPERATURE 48,   !- name
  ,   !- - Lower Limit Value {BasedOnField A3}
  ,   !- - Upper Limit Value {BasedOnField A3}
  Continuous,   !- - Numeric Type
  temperature;   !- 

ScheduleTypeLimits,
  TEMPERATURE 58,   !- name
  ,   !- - Lower Limit Value {BasedOnField A3}
  ,   !- - Upper Limit Value {BasedOnField A3}
  Continuous,   !- - Numeric Type
  temperature;   !- 

ScheduleTypeLimits,
  TEMPERATURE 13,   !- name
  ,   !- - Lower Limit Value {BasedOnField A3}
  ,   !- - Upper Limit Value {BasedOnField A3}
  Continuous,   !- - Numeric Type
  temperature;   !- 

ScheduleTypeLimits,
  TEMPERATURE 23,   !- name
  ,   !- - Lower Limit Value {BasedOnField A3}
  ,   !- - Upper Limit Value {BasedOnField A3}
  Continuous,   !- - Numeric Type
  temperature;   !- 

ScheduleTypeLimits,
  TEMPERATURE 33,   !- name
  ,   !- - Lower Limit Value {BasedOnField A3}
  ,   !- - Upper Limit Value {BasedOnField A3}
  Continuous,   !- - Numeric Type
  temperature;   !- 

ScheduleTypeLimits,
  TEMPERATURE 43,   !- name
  ,   !- - Lower Limit Value {BasedOnField A3}
  ,   !- - Upper Limit Value {BasedOnField A3}
  Continuous,   !- - Numeric Type
  temperature;   !- 

ScheduleTypeLimits,
  TEMPERATURE 53,   !- name
  ,   !- - Lower Limit Value {BasedOnField A3}
  ,   !- - Upper Limit Value {BasedOnField A3}
  Continuous,   !- - Numeric Type
  temperature;   !- 

ScheduleTypeLimits,
  TEMPERATURE 16,   !- name
  ,   !- - Lower Limit Value {BasedOnField A3}
  ,   !- - Upper Limit Value {BasedOnField A3}
  Continuous,   !- - Numeric Type
  temperature;   !- 

ScheduleTypeLimits,
  TEMPERATURE 26,   !- name
  ,   !- - Lower Limit Value {BasedOnField A3}
  ,   !- - Upper Limit Value {BasedOnField A3}
  Continuous,   !- - Numeric Type
  temperature;   !- 

ScheduleTypeLimits,
  TEMPERATURE 36,   !- name
  ,   !- - Lower Limit Value {BasedOnField A3}
  ,   !- - Upper Limit Value {BasedOnField A3}
  Continuous,   !- - Numeric Type
  temperature;   !- 

ScheduleTypeLimits,
  TEMPERATURE 46,   !- name
  ,   !- - Lower Limit Value {BasedOnField A3}
  ,   !- - Upper Limit Value {BasedOnField A3}
  Continuous,   !- - Numeric Type
  temperature;   !- 

ScheduleTypeLimits,
  TEMPERATURE 56,   !- name
  ,   !- - Lower Limit Value {BasedOnField A3}
  ,   !- - Upper Limit Value {BasedOnField A3}
  Continuous,   !- - Numeric Type
  temperature;   !- 

ScheduleTypeLimits,
  FRACTION,   !- name
  0,   !- - Lower Limit Value {BasedOnField A3}
  1,   !- - Upper Limit Value {BasedOnField A3}
  CONTINUOUS;   !- 

ScheduleTypeLimits,
  ACTIVITYLEVEL 11,   !- name
  0,   !- - Lower Limit Value {BasedOnField A3}
  ,   !- - Upper Limit Value {BasedOnField A3}
  Continuous,   !- - Numeric Type
  activitylevel;   !- 

ScheduleTypeLimits,
  TEMPERATURE 12,   !- name
  ,   !- - Lower Limit Value {BasedOnField A3}
  ,   !- - Upper Limit Value {BasedOnField A3}
  Continuous,   !- - Numeric Type
  temperature;   !- 

ScheduleTypeLimits,
  TEMPERATURE 22,   !- name
  ,   !- - Lower Limit Value {BasedOnField A3}
  ,   !- - Upper Limit Value {BasedOnField A3}
  Continuous,   !- - Numeric Type
  temperature;   !- 

ScheduleTypeLimits,
  TEMPERATURE 32,   !- name
  ,   !- - Lower Limit Value {BasedOnField A3}
  ,   !- - Upper Limit Value {BasedOnField A3}
  Continuous,   !- - Numeric Type
  temperature;   !- 

ScheduleTypeLimits,
  TEMPERATURE 42,   !- name
  ,   !- - Lower Limit Value {BasedOnField A3}
  ,   !- - Upper Limit Value {BasedOnField A3}
  Continuous,   !- - Numeric Type
  temperature;   !- 

ScheduleTypeLimits,
  TEMPERATURE 52,   !- name
  ,   !- - Lower Limit Value {BasedOnField A3}
  ,   !- - Upper Limit Value {BasedOnField A3}
  Continuous,   !- - Numeric Type
  temperature;   !- 

ScheduleTypeLimits,
  TEMPERATURE 15,   !- name
  ,   !- - Lower Limit Value {BasedOnField A3}
  ,   !- - Upper Limit Value {BasedOnField A3}
  Continuous,   !- - Numeric Type
  temperature;   !- 

ScheduleTypeLimits,
  TEMPERATURE 25,   !- name
  ,   !- - Lower Limit Value {BasedOnField A3}
  ,   !- - Upper Limit Value {BasedOnField A3}
  Continuous,   !- - Numeric Type
  temperature;   !- 

ScheduleTypeLimits,
  TEMPERATURE 35,   !- name
  ,   !- - Lower Limit Value {BasedOnField A3}
  ,   !- - Upper Limit Value {BasedOnField A3}
  Continuous,   !- - Numeric Type
  temperature;   !- 

ScheduleTypeLimits,
  TEMPERATURE 45,   !- name
  ,   !- - Lower Limit Value {BasedOnField A3}
  ,   !- - Upper Limit Value {BasedOnField A3}
  Continuous,   !- - Numeric Type
  temperature;   !- 

ScheduleTypeLimits,
  TEMPERATURE 55,   !- name
  ,   !- - Lower Limit Value {BasedOnField A3}
  ,   !- - Upper Limit Value {BasedOnField A3}
  Continuous,   !- - Numeric Type
  temperature;   !- 

ScheduleTypeLimits,
  ACTIVITYLEVEL 12,   !- name
  0,   !- - Lower Limit Value {BasedOnField A3}
  ,   !- - Upper Limit Value {BasedOnField A3}
  Continuous,   !- - Numeric Type
  activitylevel;   !- 

ScheduleTypeLimits,
  TEMPERATURE 11,   !- name
  ,   !- - Lower Limit Value {BasedOnField A3}
  ,   !- - Upper Limit Value {BasedOnField A3}
  Continuous,   !- - Numeric Type
  temperature;   !- 

ScheduleTypeLimits,
  TEMPERATURE 21,   !- name
  ,   !- - Lower Limit Value {BasedOnField A3}
  ,   !- - Upper Limit Value {BasedOnField A3}
  Continuous,   !- - Numeric Type
  temperature;   !- 

ScheduleTypeLimits,
  TEMPERATURE 31,   !- name
  ,   !- - Lower Limit Value {BasedOnField A3}
  ,   !- - Upper Limit Value {BasedOnField A3}
  Continuous,   !- - Numeric Type
  temperature;   !- 

ScheduleTypeLimits,
  TEMPERATURE 41,   !- name
  ,   !- - Lower Limit Value {BasedOnField A3}
  ,   !- - Upper Limit Value {BasedOnField A3}
  Continuous,   !- - Numeric Type
  temperature;   !- 

ScheduleTypeLimits,
  TEMPERATURE 51,   !- name
  ,   !- - Lower Limit Value {BasedOnField A3}
  ,   !- - Upper Limit Value {BasedOnField A3}
  Continuous,   !- - Numeric Type
  temperature;   !- 

ScheduleTypeLimits,
  TEMPERATURE 61,   !- name
  ,   !- - Lower Limit Value {BasedOnField A3}
  ,   !- - Upper Limit Value {BasedOnField A3}
  Continuous,   !- - Numeric Type
  temperature;   !- 

ScheduleTypeLimits,
  TEMPERATURE 14,   !- name
  ,   !- - Lower Limit Value {BasedOnField A3}
  ,   !- - Upper Limit Value {BasedOnField A3}
  Continuous,   !- - Numeric Type
  temperature;   !- 

ScheduleTypeLimits,
  TEMPERATURE 24,   !- name
  ,   !- - Lower Limit Value {BasedOnField A3}
  ,   !- - Upper Limit Value {BasedOnField A3}
  Continuous,   !- - Numeric Type
  temperature;   !- 

ScheduleTypeLimits,
  TEMPERATURE 34,   !- name
  ,   !- - Lower Limit Value {BasedOnField A3}
  ,   !- - Upper Limit Value {BasedOnField A3}
  Continuous,   !- - Numeric Type
  temperature;   !- 

ScheduleTypeLimits,
  TEMPERATURE 44,   !- name
  ,   !- - Lower Limit Value {BasedOnField A3}
  ,   !- - Upper Limit Value {BasedOnField A3}
  Continuous,   !- - Numeric Type
  temperature;   !- 

ScheduleTypeLimits,
  TEMPERATURE 54,   !- name
  ,   !- - Lower Limit Value {BasedOnField A3}
  ,   !- - Upper Limit Value {BasedOnField A3}
  Continuous,   !- - Numeric Type
  temperature;   !- 

ScheduleTypeLimits,
  ON/OFF,   !- name
  0,   !- - Lower Limit Value {BasedOnField A3}
  1,   !- - Upper Limit Value {BasedOnField A3}
  DISCRETE;   !- 

ScheduleTypeLimits,
  ACTIVITYLEVEL 4,   !- name
  0,   !- - Lower Limit Value {BasedOnField A3}
  ,   !- - Upper Limit Value {BasedOnField A3}
  Continuous,   !- - Numeric Type
  activitylevel;   !- 

ScheduleTypeLimits,
  ACTIVITYLEVEL 5,   !- name
  0,   !- - Lower Limit Value {BasedOnField A3}
  ,   !- - Upper Limit Value {BasedOnField A3}
  Continuous,   !- - Numeric Type
  activitylevel;   !- 

ScheduleTypeLimits,
  ACTIVITYLEVEL 13,   !- name
  0,   !- - Lower Limit Value {BasedOnField A3}
  ,   !- - Upper Limit Value {BasedOnField A3}
  Continuous,   !- - Numeric Type
  activitylevel;   !- 

ScheduleTypeLimits,
  ACTIVITYLEVEL 6,   !- name
  0,   !- - Lower Limit Value {BasedOnField A3}
  ,   !- - Upper Limit Value {BasedOnField A3}
  Continuous,   !- - Numeric Type
  activitylevel;   !- 

ScheduleTypeLimits,
  ACTIVITYLEVEL 7,   !- name
  0,   !- - Lower Limit Value {BasedOnField A3}
  ,   !- - Upper Limit Value {BasedOnField A3}
  Continuous,   !- - Numeric Type
  activitylevel;   !- 

ScheduleTypeLimits,
  ACTIVITYLEVEL 1,   !- name
  0,   !- - Lower Limit Value {BasedOnField A3}
  ,   !- - Upper Limit Value {BasedOnField A3}
  Continuous,   !- - Numeric Type
  activitylevel;   !- 

ScheduleTypeLimits,
  ACTIVITYLEVEL 2,   !- name
  0,   !- - Lower Limit Value {BasedOnField A3}
  ,   !- - Upper Limit Value {BasedOnField A3}
  Continuous,   !- - Numeric Type
  activitylevel;   !- 

ScheduleTypeLimits,
  ACTIVITYLEVEL 3,   !- name
  0,   !- - Lower Limit Value {BasedOnField A3}
  ,   !- - Upper Limit Value {BasedOnField A3}
  Continuous,   !- - Numeric Type
  activitylevel;   !- 

ScheduleTypeLimits,
  ACTIVITYLEVEL 8,   !- name
  0,   !- - Lower Limit Value {BasedOnField A3}
  ,   !- - Upper Limit Value {BasedOnField A3}
  Continuous,   !- - Numeric Type
  activitylevel;   !- 

ScheduleTypeLimits,
  ACTIVITYLEVEL 9,   !- name
  0,   !- - Lower Limit Value {BasedOnField A3}
  ,   !- - Upper Limit Value {BasedOnField A3}
  Continuous,   !- - Numeric Type
  activitylevel;   !- 

ScheduleTypeLimits,
  FRACTIONAL,   !- name
  0,   !- - Lower Limit Value {BasedOnField A3}
  1,   !- - Upper Limit Value {BasedOnField A3}
  Continuous;   !- 

ScheduleTypeLimits,
  TEMPERATURE,   !- name
  -60,   !- - Lower Limit Value {BasedOnField A3}
  200,   !- - Upper Limit Value {BasedOnField A3}
  CONTINUOUS;   !- 

ScheduleTypeLimits,
  TEMPERATURE 10,   !- name
  ,   !- - Lower Limit Value {BasedOnField A3}
  ,   !- - Upper Limit Value {BasedOnField A3}
  Continuous,   !- - Numeric Type
  temperature;   !- 

ScheduleTypeLimits,
  TEMPERATURE 20,   !- name
  ,   !- - Lower Limit Value {BasedOnField A3}
  ,   !- - Upper Limit Value {BasedOnField A3}
  Continuous,   !- - Numeric Type
  temperature;   !- 

ScheduleTypeLimits,
  ACTIVITYLEVEL,   !- name
  0,   !- - Lower Limit Value {BasedOnField A3}
  ,   !- - Upper Limit Value {BasedOnField A3}
  Continuous,   !- - Numeric Type
  activitylevel;   !- 


GlobalGeometryRules,
	LowerLeftCorner,         !- Starting Vertex Position
	CounterClockWise,        !- Vertex Entry Direction
	Relative,                !- Coordinate System
	Relative,                !- Daylighting Ref Point Coordinate System
	Relative;                !- Rectangular Surface Coordinate System


Construction,
  EXTERIOR WALL,   !- name
  M01 100mm brick,   !- - Layer 1
  M15 200mm heavyweight concrete,   !- - Layer 2
  I02 50mm insulation board,   !- - Layer 3
  F04 Wall air space resistance,   !- - Layer 4
  G01a 19mm gypsum board;   !- 

Material,
  M01 100MM BRICK,   !- name
  MediumRough,   !- - Roughness
  0.1016,   !- - Thickness {m}
  0.89,   !- - Conductivity {W/m-K}
  1920,   !- - Density {kg/m3}
  790,   !- - Specific Heat {J/kg-K}
  0.9,   !- - Thermal Absorptance
  0.7,   !- - Solar Absorptance
  0.7;   !- 

Material,
  M15 200MM HEAVYWEIGHT CONCRETE,   !- name
  MediumRough,   !- - Roughness
  0.2032,   !- - Thickness {m}
  1.95,   !- - Conductivity {W/m-K}
  2240,   !- - Density {kg/m3}
  900,   !- - Specific Heat {J/kg-K}
  0.9,   !- - Thermal Absorptance
  0.7,   !- - Solar Absorptance
  0.7;   !- 

Material,
  I02 50MM INSULATION BOARD,   !- name
  MediumRough,   !- - Roughness
  0.0508,   !- - Thickness {m}
  0.03,   !- - Conductivity {W/m-K}
  43,   !- - Density {kg/m3}
  1210,   !- - Specific Heat {J/kg-K}