
Version, 8.8.0;

Timestep, 6;

Building,
	bcn , !- Name
	0.0, !- North Axis {deg}
	City, !- Terrain
	, !- Loads Convergence Tolerance Value
	, !- Temperature Convergence Tolerance Value {deltaC}
	FullInteriorAndExteriorWithReflections, !- Solar Distribution or maybe FullExterior
	, !- Maximum Number of Warmup Days
	; !- Minimum Number of Warmup Days

GlobalGeometryRules,
	LowerLeftCorner,         !- Starting Vertex Position
	CounterClockWise,        !- Vertex Entry Direction
	Relative,                !- Coordinate System
	Relative,                !- Daylighting Ref Point Coordinate System
	Relative;                !- Rectangular Surface Coordinate System

Site:Location,
	BARCELONA	ESP,
	41.28,    !Latitude
	2.07,   !Longitude
	1.0, !Time Zone
	6.0;   !Elevation


 SizingPeriod:DesignDay,
  BARCELONA Ann Htg 99.6% Condns DB,     !- Name
          1,      !- Month
         21,      !- Day of Month
  WinterDesignDay,!- Day Type
        0.9,      !- Maximum Dry-Bulb Temperature {C}
        0.0,      !- Daily Dry-Bulb Temperature Range {C}
 DefaultMultipliers, !- Dry-Bulb Temperature Range Modifier Type
           ,      !- Dry-Bulb Temperature Range Modifier Schedule Name
    Wetbulb,      !- Humidity Condition Type
        0.9,      !- Wetbulb at Maximum Dry-Bulb {C}
           ,      !- Humidity Indicating Day Schedule Name
           ,      !- Humidity Ratio at Maximum Dry-Bulb {kgWater/kgDryAir}
           ,      !- Enthalpy at Maximum Dry-Bulb {J/kg}
           ,      !- Daily Wet-Bulb Temperature Range {deltaC}
    101253.,      !- Barometric Pressure {Pa}
        4.3,      !- Wind Speed {m/s} design conditions vs. traditional 6.71 m/s (15 mph)
        350,      !- Wind Direction {Degrees; N=0, S=180}
         No,      !- Rain {Yes/No}
         No,      !- Snow on ground {Yes/No}
         No,      !- Daylight Savings Time Indicator
  ASHRAEClearSky, !- Solar Model Indicator
           ,      !- Beam Solar Day Schedule Name
           ,      !- Diffuse Solar Day Schedule Name
           ,      !- ASHRAE Clear Sky Optical Depth for Beam Irradiance (taub)
           ,      !- ASHRAE Clear Sky Optical Depth for Diffuse Irradiance (taud)
       0.00;      !- Clearness {0.0 to 1.1}

 SizingPeriod:DesignDay,
  BARCELONA Ann Hum_n 99.6% Condns DP=>MCDB,     !- Name
          1,      !- Month
         21,      !- Day of Month
  WinterDesignDay,!- Day Type
        5.5,      !- Maximum Dry-Bulb Temperature {C}
        0.0,      !- Daily Dry-Bulb Temperature Range {C}
 DefaultMultipliers, !- Dry-Bulb Temperature Range Modifier Type
           ,      !- Dry-Bulb Temperature Range Modifier Schedule Name
    Dewpoint,     !- Humidity Condition Type
       -7.1,      !- Dewpoint at Maximum Dry-Bulb {C}
           ,      !- Humidity Indicating Day Schedule Name
           ,      !- Humidity Ratio at Maximum Dry-Bulb {kgWater/kgDryAir}
           ,      !- Enthalpy at Maximum Dry-Bulb {J/kg}
           ,      !- Daily Wet-Bulb Temperature Range {deltaC}
    101253.,      !- Barometric Pressure {Pa}
        4.3,      !- Wind Speed {m/s} design conditions vs. traditional 6.71 m/s (15 mph)
        350,      !- Wind Direction {Degrees; N=0, S=180}
         No,      !- Rain {Yes/No}
         No,      !- Snow on ground {Yes/No}
         No,      !- Daylight Savings Time Indicator
  ASHRAEClearSky, !- Solar Model Indicator
           ,      !- Beam Solar Day Schedule Name
           ,      !- Diffuse Solar Day Schedule Name
           ,      !- ASHRAE Clear Sky Optical Depth for Beam Irradiance (taub)
           ,      !- ASHRAE Clear Sky Optical Depth for Diffuse Irradiance (taud)
       0.00;      !- Clearness {0.0 to 1.1}

 SizingPeriod:DesignDay,
  BARCELONA Ann Htg Wind 99.6% Condns WS=>MCDB,     !- Name
          1,      !- Month
         21,      !- Day of Month
  WinterDesignDay,!- Day Type
       11.2,      !- Maximum Dry-Bulb Temperature {C}
        0.0,      !- Daily Dry-Bulb Temperature Range {C}
 DefaultMultipliers, !- Dry-Bulb Temperature Range Modifier Type
           ,      !- Dry-Bulb Temperature Range Modifier Schedule Name
    Wetbulb,      !- Humidity Condition Type
       11.2,      !- Wetbulb at Maximum Dry-Bulb {C}
           ,      !- Humidity Indicating Day Schedule Name
           ,      !- Humidity Ratio at Maximum Dry-Bulb {kgWater/kgDryAir}
           ,      !- Enthalpy at Maximum Dry-Bulb {J/kg}
           ,      !- Daily Wet-Bulb Temperature Range {deltaC}
    101253.,      !- Barometric Pressure {Pa}
       10.9,      !- Wind Speed {m/s} design conditions vs. traditional 6.71 m/s (15 mph)
        350,      !- Wind Direction {Degrees; N=0, S=180}
         No,      !- Rain {Yes/No}
         No,      !- Snow on ground {Yes/No}
         No,      !- Daylight Savings Time Indicator
  ASHRAEClearSky, !- Solar Model Indicator
           ,      !- Beam Solar Day Schedule Name
           ,      !- Diffuse Solar Day Schedule Name
           ,      !- ASHRAE Clear Sky Optical Depth for Beam Irradiance (taub)
           ,      !- ASHRAE Clear Sky Optical Depth for Diffuse Irradiance (taud)
       0.00;      !- Clearness {0.0 to 1.1}

 SizingPeriod:DesignDay,
  BARCELONA Ann Clg .4% Condns DB=>MWB,     !- Name
          8,      !- Month
         21,      !- Day of Month
  SummerDesignDay,!- Day Type
       30.2,      !- Maximum Dry-Bulb Temperature {C}
        7.7,      !- Daily Dry-Bulb Temperature Range {C}
 DefaultMultipliers, !- Dry-Bulb Temperature Range Modifier Type
           ,      !- Dry-Bulb Temperature Range Modifier Schedule Name
    Wetbulb,      !- Humidity Condition Type
       23.8,      !- Wetbulb at Maximum Dry-Bulb {C}
           ,      !- Humidity Indicating Day Schedule Name
           ,      !- Humidity Ratio at Maximum Dry-Bulb {kgWater/kgDryAir}
           ,      !- Enthalpy at Maximum Dry-Bulb {J/kg}
           ,      !- Daily Wet-Bulb Temperature Range {deltaC}
    101253.,      !- Barometric Pressure {Pa}
        4.4,      !- Wind Speed {m/s} design conditions vs. traditional 3.35 m/s (7mph)
        210,      !- Wind Direction {Degrees; N=0, S=180}
         No,      !- Rain {Yes/No}
         No,      !- Snow on ground {Yes/No}
         No,      !- Daylight Savings Time Indicator
       ASHRAETau, !- Solar Model Indicator
           ,      !- Beam Solar Day Schedule Name
           ,      !- Diffuse Solar Day Schedule Name
      0.492,      !- ASHRAE Clear Sky Optical Depth for Beam Irradiance (taub)
      1.927;      !- ASHRAE Clear Sky Optical Depth for Diffuse Irradiance (taud)

 SizingPeriod:DesignDay,
  BARCELONA Ann Clg .4% Condns WB=>MDB,     !- Name
          8,      !- Month
         21,      !- Day of Month
  SummerDesignDay,!- Day Type
       28.7,      !- Maximum Dry-Bulb Temperature {C}
        7.7,      !- Daily Dry-Bulb Temperature Range {C}
 DefaultMultipliers, !- Dry-Bulb Temperature Range Modifier Type
           ,      !- Dry-Bulb Temperature Range Modifier Schedule Name
    Wetbulb,      !- Humidity Condition Type
       25.4,      !- Wetbulb at Maximum Dry-Bulb {C}
           ,      !- Humidity Indicating Day Schedule Name
           ,      !- Humidity Ratio at Maximum Dry-Bulb {kgWater/kgDryAir}
           ,      !- Enthalpy at Maximum Dry-Bulb {J/kg}
           ,      !- Daily Wet-Bulb Temperature Range {deltaC}
    101253.,      !- Barometric Pressure {Pa}
        4.4,      !- Wind Speed {m/s} design conditions vs. traditional 3.35 m/s (7mph)
        210,      !- Wind Direction {Degrees; N=0, S=180}
         No,      !- Rain {Yes/No}
         No,      !- Snow on ground {Yes/No}
         No,      !- Daylight Savings Time Indicator
       ASHRAETau, !- Solar Model Indicator
           ,      !- Beam Solar Day Schedule Name
           ,      !- Diffuse Solar Day Schedule Name
      0.492,      !- ASHRAE Clear Sky Optical Depth for Beam Irradiance (taub)
      1.927;      !- ASHRAE Clear Sky Optical Depth for Diffuse Irradiance (taud)

 SizingPeriod:DesignDay,
  BARCELONA Ann Clg .4% Condns DP=>MDB,     !- Name
          8,      !- Month
         21,      !- Day of Month
  SummerDesignDay,!- Day Type
       27.8,      !- Maximum Dry-Bulb Temperature {C}
        7.7,      !- Daily Dry-Bulb Temperature Range {C}
 DefaultMultipliers, !- Dry-Bulb Temperature Range Modifier Type
           ,      !- Dry-Bulb Temperature Range Modifier Schedule Name
    Dewpoint,     !- Humidity Condition Type
       24.2,      !- Dewpoint at Maximum Dry-Bulb {C}
           ,      !- Humidity Indicating Day Schedule Name
           ,      !- Humidity Ratio at Maximum Dry-Bulb {kgWater/kgDryAir}
           ,      !- Enthalpy at Maximum Dry-Bulb {J/kg}
           ,      !- Daily Wet-Bulb Temperature Range {deltaC}
    101253.,      !- Barometric Pressure {Pa}
        4.4,      !- Wind Speed {m/s} design conditions vs. traditional 3.35 m/s (7mph)
        210,      !- Wind Direction {Degrees; N=0, S=180}
         No,      !- Rain {Yes/No}
         No,      !- Snow on ground {Yes/No}
         No,      !- Daylight Savings Time Indicator
       ASHRAETau, !- Solar Model Indicator
           ,      !- Beam Solar Day Schedule Name
           ,      !- Diffuse Solar Day Schedule Name
      0.492,      !- ASHRAE Clear Sky Optical Depth for Beam Irradiance (taub)
      1.927;      !- ASHRAE Clear Sky Optical Depth for Diffuse Irradiance (taud)

 SizingPeriod:DesignDay,
  BARCELONA Ann Clg .4% Condns Enth=>MDB,     !- Name
          8,      !- Month
         21,      !- Day of Month
  SummerDesignDay,!- Day Type
       28.9,      !- Maximum Dry-Bulb Temperature {C}
        7.7,      !- Daily Dry-Bulb Temperature Range {C}
 DefaultMultipliers, !- Dry-Bulb Temperature Range Modifier Type
           ,      !- Dry-Bulb Temperature Range Modifier Schedule Name
   Enthalpy,      !- Humidity Condition Type
           ,      !- Wetbulb or Dewpoint at Maximum Dry-Bulb
           ,      !- Humidity Indicating Day Schedule Name
           ,      !- Humidity Ratio at Maximum Dry-Bulb {kgWater/kgDryAir}
    77700.0,      !- Enthalpy at Maximum Dry-Bulb {J/kg}
           ,      !- Daily Wet-Bulb Temperature Range {deltaC}
    101253.,      !- Barometric Pressure {Pa}
        4.4,      !- Wind Speed {m/s} design conditions vs. traditional 3.35 m/s (7mph)
        210,      !- Wind Direction {Degrees; N=0, S=180}
         No,      !- Rain {Yes/No}
         No,      !- Snow on ground {Yes/No}
         No,      !- Daylight Savings Time Indicator
       ASHRAETau, !- Solar Model Indicator
           ,      !- Beam Solar Day Schedule Name
           ,      !- Diffuse Solar Day Schedule Name
      0.492,      !- ASHRAE Clear Sky Optical Depth for Beam Irradiance (taub)
      1.927;      !- ASHRAE Clear Sky Optical Depth for Diffuse Irradiance (taud)


SimulationControl,
	Yes,    !- Do Zone Sizing Calculation
	Yes,  !- Do System Sizing Calculation
	Yes,   !- Do Plant Sizing Calculation
	No,  !- Run Simulation for Sizing Periods
	Yes; !- Run Simulation for Weather File Run Periods

RunPeriod,
	customRun,    !- Name
	1,   !- Begin Month
	1,    !- Begin Day of Month
	12, !- End Month
	31,   !- End Day of Month
	UseWeatherFile,   !- Day of Week for Start Day
	Yes,              !- Use Weather File Holidays and Special Days
	Yes,              !- Use Weather File Daylight Saving Period
	No,               !- Apply Weekend Holiday Rule
	Yes,              !- Use Weather File Rain Indicators
	Yes;              !- Use Weather File Snow Indicators


Output:Surfaces:List,
	Details;                 !- Report Type

Output:VariableDictionary,
	regular;                 !- Key Field

OutputControl:Table:Style,CommaAndHTML,JtoKWH;
Output:Table:SummaryReports,AllSummary;
Output:Variable,*,Zone Ideal Loads Supply Air Total Cooling Energy, monthly;
Output:Variable,*,Zone Ideal Loads Supply Air Total Heating Energy, monthly;
Output:Variable,*,Cooling Coil Electric Energy, monthly;
Output:Variable,*,Chiller Electric Energy, monthly;
Output:Variable,*,Boiler Gas Energy, monthly;
Output:Variable,*,Heating Coil Total Heating Energy, monthly;
Output:Variable,*,Heating Coil Gas Energy, monthly;
Output:Variable,*,Heating Coil Electric Energy, monthly;
Output:Variable,*,Humidifier Electric Energy, monthly;
Output:Variable,*,Fan Electric Energy, monthly;
Output:Variable,*,Zone Ventilation Fan Electric Energy, monthly;
Output:Variable,*,Zone Lights Electric Energy, monthly;
Output:Variable,*,Zone Electric Equipment Electric Energy, monthly;
Output:Variable,*,Earth Tube Fan Electric Energy, monthly;
Output:Variable,*,Pump Electric Energy, monthly;
Output:Variable,*,Zone VRF Air Terminal Cooling Electric Energy, monthly;
Output:Variable,*,Zone VRF Air Terminal Heating Electric Energy, monthly;
Output:Variable,*,VRF Heat Pump Cooling Electric Energy, monthly;
Output:Variable,*,VRF Heat Pump Heating Electric Energy, monthly;
Output:Variable,*,Chiller Heater System Cooling Electric Energy, monthly;
Output:Variable,*,Chiller Heater System Heating Electric Energy, monthly;
