!- Darwin Line endings 

Version,
    8.8.0;                    !- Version Identifier

SimulationControl,
    Yes,                      !- Do Zone Sizing Calculation
    Yes,                      !- Do System Sizing Calculation
    Yes,                      !- Do Plant Sizing Calculation
    No,                       !- Run Simulation for Sizing Periods
    Yes;                      !- Run Simulation for Weather File Run Periods

Building,
    bcn,                      !- Name
    0,                        !- North Axis
    City,                     !- Terrain
    ,                         !- Loads Convergence Tolerance Value
    ,                         !- Temperature Convergence Tolerance Value
    FullInteriorAndExteriorWithReflections,    !- Solar Distribution
    ,                         !- Maximum Number of Warmup Days
    ;                         !- Minimum Number of Warmup Days

ShadowCalculation,
    AverageOverDaysInFrequency,    !- Calculation Method
    30,                       !- Calculation Frequency
    3000;                     !- Maximum Figures in Shadow Overlap Calculations

Timestep,
    6;                        !- Number of Timesteps per Hour

Site:Location,
    BARCELONA	ESP,            !- Name
    41.28,                    !- Latitude
    2.07,                     !- Longitude
    1,                        !- Time Zone
    6;                        !- Elevation

SizingPeriod:DesignDay,
    BARCELONA Ann Htg 99.6% Condns DB,    !- Name
    1,                        !- Month
    21,                       !- Day of Month
    WinterDesignDay,          !- Day Type
    0.9,                      !- Maximum DryBulb Temperature
    0,                        !- Daily DryBulb Temperature Range
    DefaultMultipliers,       !- DryBulb Temperature Range Modifier Type
    ,                         !- DryBulb Temperature Range Modifier Day Schedule Name
    Wetbulb,                  !- Humidity Condition Type
    0.9,                      !- Wetbulb or DewPoint at Maximum DryBulb
    ,                         !- Humidity Condition Day Schedule Name
    ,                         !- Humidity Ratio at Maximum DryBulb
    ,                         !- Enthalpy at Maximum DryBulb
    ,                         !- Daily WetBulb Temperature Range
    101253,                   !- Barometric Pressure
    4.3,                      !- Wind Speed
    350,                      !- Wind Direction
    No,                       !- Rain Indicator
    No,                       !- Snow Indicator
    No,                       !- Daylight Saving Time Indicator
    ASHRAEClearSky,           !- Solar Model Indicator
    ,                         !- Beam Solar Day Schedule Name
    ,                         !- Diffuse Solar Day Schedule Name
    ,                         !- ASHRAE Clear Sky Optical Depth for Beam Irradiance taub
    ,                         !- ASHRAE Clear Sky Optical Depth for Diffuse Irradiance taud
    0;                        !- Sky Clearness

SizingPeriod:DesignDay,
    BARCELONA Ann Hum_n 99.6% Condns DP=>MCDB,    !- Name
    1,                        !- Month
    21,                       !- Day of Month
    WinterDesignDay,          !- Day Type
    5.5,                      !- Maximum DryBulb Temperature
    0,                        !- Daily DryBulb Temperature Range
    DefaultMultipliers,       !- DryBulb Temperature Range Modifier Type
    ,                         !- DryBulb Temperature Range Modifier Day Schedule Name
    Dewpoint,                 !- Humidity Condition Type
    -7.1,                     !- Wetbulb or DewPoint at Maximum DryBulb
    ,                         !- Humidity Condition Day Schedule Name
    ,                         !- Humidity Ratio at Maximum DryBulb
    ,                         !- Enthalpy at Maximum DryBulb
    ,                         !- Daily WetBulb Temperature Range
    101253,                   !- Barometric Pressure
    4.3,                      !- Wind Speed
    350,                      !- Wind Direction
    No,                       !- Rain Indicator
    No,                       !- Snow Indicator
    No,                       !- Daylight Saving Time Indicator
    ASHRAEClearSky,           !- Solar Model Indicator
    ,                         !- Beam Solar Day Schedule Name
    ,                         !- Diffuse Solar Day Schedule Name
    ,                         !- ASHRAE Clear Sky Optical Depth for Beam Irradiance taub
    ,                         !- ASHRAE Clear Sky Optical Depth for Diffuse Irradiance taud
    0;                        !- Sky Clearness

SizingPeriod:DesignDay,
    BARCELONA Ann Htg Wind 99.6% Condns WS=>MCDB,    !- Name
    1,                        !- Month
    21,                       !- Day of Month
    WinterDesignDay,          !- Day Type
    11.2,                     !- Maximum DryBulb Temperature
    0,                        !- Daily DryBulb Temperature Range
    DefaultMultipliers,       !- DryBulb Temperature Range Modifier Type
    ,                         !- DryBulb Temperature Range Modifier Day Schedule Name
    Wetbulb,                  !- Humidity Condition Type
    11.2,                     !- Wetbulb or DewPoint at Maximum DryBulb
    ,                         !- Humidity Condition Day Schedule Name
    ,                         !- Humidity Ratio at Maximum DryBulb
    ,                         !- Enthalpy at Maximum DryBulb
    ,                         !- Daily WetBulb Temperature Range
    101253,                   !- Barometric Pressure
    10.9,                     !- Wind Speed
    350,                      !- Wind Direction
    No,                       !- Rain Indicator
    No,                       !- Snow Indicator
    No,                       !- Daylight Saving Time Indicator
    ASHRAEClearSky,           !- Solar Model Indicator
    ,                         !- Beam Solar Day Schedule Name
    ,                         !- Diffuse Solar Day Schedule Name
    ,                         !- ASHRAE Clear Sky Optical Depth for Beam Irradiance taub
    ,                         !- ASHRAE Clear Sky Optical Depth for Diffuse Irradiance taud
    0;                        !- Sky Clearness

SizingPeriod:DesignDay,
    BARCELONA Ann Clg .4% Condns DB=>MWB,    !- Name
    8,                        !- Month
    21,                       !- Day of Month
    SummerDesignDay,          !- Day Type
    30.2,                     !- Maximum DryBulb Temperature
    7.7,                      !- Daily DryBulb Temperature Range
    DefaultMultipliers,       !- DryBulb Temperature Range Modifier Type
    ,                         !- DryBulb Temperature Range Modifier Day Schedule Name
    Wetbulb,                  !- Humidity Condition Type
    23.8,                     !- Wetbulb or DewPoint at Maximum DryBulb
    ,                         !- Humidity Condition Day Schedule Name
    ,                         !- Humidity Ratio at Maximum DryBulb
    ,                         !- Enthalpy at Maximum DryBulb
    ,                         !- Daily WetBulb Temperature Range
    101253,                   !- Barometric Pressure
    4.4,                      !- Wind Speed
    210,                      !- Wind Direction
    No,                       !- Rain Indicator
    No,                       !- Snow Indicator
    No,                       !- Daylight Saving Time Indicator
    ASHRAETau,                !- Solar Model Indicator
    ,                         !- Beam Solar Day Schedule Name
    ,                         !- Diffuse Solar Day Schedule Name
    0.492,                    !- ASHRAE Clear Sky Optical Depth for Beam Irradiance taub
    1.927;                    !- ASHRAE Clear Sky Optical Depth for Diffuse Irradiance taud

SizingPeriod:DesignDay,
    BARCELONA Ann Clg .4% Condns WB=>MDB,    !- Name
    8,                        !- Month
    21,                       !- Day of Month
    SummerDesignDay,          !- Day Type
    28.7,                     !- Maximum DryBulb Temperature
    7.7,                      !- Daily DryBulb Temperature Range
    DefaultMultipliers,       !- DryBulb Temperature Range Modifier Type
    ,                         !- DryBulb Temperature Range Modifier Day Schedule Name
    Wetbulb,                  !- Humidity Condition Type
    25.4,                     !- Wetbulb or DewPoint at Maximum DryBulb
    ,                         !- Humidity Condition Day Schedule Name
    ,                         !- Humidity Ratio at Maximum DryBulb
    ,                         !- Enthalpy at Maximum DryBulb
    ,                         !- Daily WetBulb Temperature Range
    101253,                   !- Barometric Pressure
    4.4,                      !- Wind Speed
    210,                      !- Wind Direction
    No,                       !- Rain Indicator
    No,                       !- Snow Indicator
    No,                       !- Daylight Saving Time Indicator
    ASHRAETau,                !- Solar Model Indicator
    ,                         !- Beam Solar Day Schedule Name
    ,                         !- Diffuse Solar Day Schedule Name
    0.492,                    !- ASHRAE Clear Sky Optical Depth for Beam Irradiance taub
    1.927;                    !- ASHRAE Clear Sky Optical Depth for Diffuse Irradiance taud

SizingPeriod:DesignDay,
    BARCELONA Ann Clg .4% Condns DP=>MDB,    !- Name
    8,                        !- Month
    21,                       !- Day of Month
    SummerDesignDay,          !- Day Type
    27.8,                     !- Maximum DryBulb Temperature
    7.7,                      !- Daily DryBulb Temperature Range
    DefaultMultipliers,       !- DryBulb Temperature Range Modifier Type
    ,                         !- DryBulb Temperature Range Modifier Day Schedule Name
    Dewpoint,                 !- Humidity Condition Type
    24.2,                     !- Wetbulb or DewPoint at Maximum DryBulb
    ,                         !- Humidity Condition Day Schedule Name
    ,                         !- Humidity Ratio at Maximum DryBulb
    ,                         !- Enthalpy at Maximum DryBulb
    ,                         !- Daily WetBulb Temperature Range
    101253,                   !- Barometric Pressure
    4.4,                      !- Wind Speed
    210,                      !- Wind Direction
    No,                       !- Rain Indicator
    No,                       !- Snow Indicator
    No,                       !- Daylight Saving Time Indicator
    ASHRAETau,                !- Solar Model Indicator
    ,                         !- Beam Solar Day Schedule Name
    ,                         !- Diffuse Solar Day Schedule Name
    0.492,                    !- ASHRAE Clear Sky Optical Depth for Beam Irradiance taub
    1.927;                    !- ASHRAE Clear Sky Optical Depth for Diffuse Irradiance taud

SizingPeriod:DesignDay,
    BARCELONA Ann Clg .4% Condns Enth=>MDB,    !- Name
    8,                        !- Month
    21,                       !- Day of Month
    SummerDesignDay,          !- Day Type
    28.9,                     !- Maximum DryBulb Temperature
    7.7,                      !- Daily DryBulb Temperature Range
    DefaultMultipliers,       !- DryBulb Temperature Range Modifier Type
    ,                         !- DryBulb Temperature Range Modifier Day Schedule Name
    Enthalpy,                 !- Humidity Condition Type
    ,                         !- Wetbulb or DewPoint at Maximum DryBulb
    ,                         !- Humidity Condition Day Schedule Name
    ,                         !- Humidity Ratio at Maximum DryBulb
    77700,                    !- Enthalpy at Maximum DryBulb
    ,                         !- Daily WetBulb Temperature Range
    101253,                   !- Barometric Pressure
    4.4,                      !- Wind Speed
    210,                      !- Wind Direction
    No,                       !- Rain Indicator
    No,                       !- Snow Indicator
    No,                       !- Daylight Saving Time Indicator
    ASHRAETau,                !- Solar Model Indicator
    ,                         !- Beam Solar Day Schedule Name
    ,                         !- Diffuse Solar Day Schedule Name
    0.492,                    !- ASHRAE Clear Sky Optical Depth for Beam Irradiance taub
    1.927;                    !- ASHRAE Clear Sky Optical Depth for Diffuse Irradiance taud

RunPeriod,
    customRun,                !- Name
    1,                        !- Begin Month
    1,                        !- Begin Day of Month
    12,                       !- End Month
    31,                       !- End Day of Month
    UseWeatherFile,           !- Day of Week for Start Day
    Yes,                      !- Use Weather File Holidays and Special Days
    Yes,                      !- Use Weather File Daylight Saving Period
    No,                       !- Apply Weekend Holiday Rule
    Yes,                      !- Use Weather File Rain Indicators
    Yes;                      !- Use Weather File Snow Indicators

ScheduleTypeLimits,
    TEMPERATURE 30,           !- Name
    ,                         !- Lower Limit Value
    ,                         !- Upper Limit Value
    Continuous,               !- Numeric Type
    temperature;              !- Unit Type

ScheduleTypeLimits,
    ANY NUMBER;               !- Name

ScheduleTypeLimits,
    TEMPERATURE 40,           !- Name
    ,                         !- Lower Limit Value
    ,                         !- Upper Limit Value
    Continuous,               !- Numeric Type
    temperature;              !- Unit Type

ScheduleTypeLimits,
    TEMPERATURE 50,           !- Name
    ,                         !- Lower Limit Value
    ,                         !- Upper Limit Value
    Continuous,               !- Numeric Type
    temperature;              !- Unit Type

ScheduleTypeLimits,
    TEMPERATURE 8,            !- Name
    ,                         !- Lower Limit Value
    ,                         !- Upper Limit Value
    Continuous,               !- Numeric Type
    temperature;              !- Unit Type

ScheduleTypeLimits,
    TEMPERATURE 60,           !- Name
    ,                         !- Lower Limit Value
    ,                         !- Upper Limit Value
    Continuous,               !- Numeric Type
    temperature;              !- Unit Type

ScheduleTypeLimits,
    TEMPERATURE 9,            !- Name
    ,                         !- Lower Limit Value
    ,                         !- Upper Limit Value
    Continuous,               !- Numeric Type
    temperature;              !- Unit Type

ScheduleTypeLimits,
    TEMPERATURE 19,           !- Name
    ,                         !- Lower Limit Value
    ,                         !- Upper Limit Value
    Continuous,               !- Numeric Type
    temperature;              !- Unit Type

ScheduleTypeLimits,
    TEMPERATURE 29,           !- Name
    ,                         !- Lower Limit Value
    ,                         !- Upper Limit Value
    Continuous,               !- Numeric Type
    temperature;              !- Unit Type

ScheduleTypeLimits,
    TEMPERATURE 39,           !- Name
    ,                         !- Lower Limit Value
    ,                         !- Upper Limit Value
    Continuous,               !- Numeric Type
    temperature;              !- Unit Type

ScheduleTypeLimits,
    TEMPERATURE 1,            !- Name
    ,                         !- Lower Limit Value
    ,                         !- Upper Limit Value
    Continuous,               !- Numeric Type
    temperature;              !- Unit Type

ScheduleTypeLimits,
    TEMPERATURE 2,            !- Name
    ,                         !- Lower Limit Value
    ,                         !- Upper Limit Value
    Continuous,               !- Numeric Type
    temperature;              !- Unit Type

ScheduleTypeLimits,
    TEMPERATURE 3,            !- Name
    ,                         !- Lower Limit Value
    ,                         !- Upper Limit Value
    Continuous,               !- Numeric Type
    temperature;              !- Unit Type

ScheduleTypeLimits,
    TEMPERATURE 4,            !- Name
    ,                         !- Lower Limit Value
    ,                         !- Upper Limit Value
    Continuous,               !- Numeric Type
    temperature;              !- Unit Type

ScheduleTypeLimits,
    TEMPERATURE 5,            !- Name
    ,                         !- Lower Limit Value
    ,                         !- Upper Limit Value
    Continuous,               !- Numeric Type
    temperature;              !- Unit Type

ScheduleTypeLimits,
    TEMPERATURE 6,            !- Name
    ,                         !- Lower Limit Value
    ,                         !- Upper Limit Value
    Continuous,               !- Numeric Type
    temperature;              !- Unit Type

ScheduleTypeLimits,
    CONTROL TYPE,             !- Name
    0,                        !- Lower Limit Value
    4,                        !- Upper Limit Value
    DISCRETE;                 !- Numeric Type

ScheduleTypeLimits,
    TEMPERATURE 7,            !- Name
    ,                         !- Lower Limit Value
    ,                         !- Upper Limit Value
    Continuous,               !- Numeric Type
    temperature;              !- Unit Type

ScheduleTypeLimits,
    TEMPERATURE 49,           !- Name
    ,                         !- Lower Limit Value
    ,                         !- Upper Limit Value
    Continuous,               !- Numeric Type
    temperature;              !- Unit Type

ScheduleTypeLimits,
    TEMPERATURE 59,           !- Name
    ,                         !- Lower Limit Value
    ,                         !- Upper Limit Value
    Continuous,               !- Numeric Type
    temperature;              !- Unit Type

ScheduleTypeLimits,
    ACTIVITYLEVEL 14,         !- Name
    0,                        !- Lower Limit Value
    ,                         !- Upper Limit Value
    Continuous,               !- Numeric Type
    activitylevel;            !- Unit Type

ScheduleTypeLimits,
    TEMPERATURE 17,           !- Name
    ,                         !- Lower Limit Value
    ,                         !- Upper Limit Value
    Continuous,               !- Numeric Type
    temperature;              !- Unit Type

ScheduleTypeLimits,
    TEMPERATURE 27,           !- Name
    ,                         !- Lower Limit Value
    ,                         !- Upper Limit Value
    Continuous,               !- Numeric Type
    temperature;              !- Unit Type

ScheduleTypeLimits,
    TEMPERATURE 37,           !- Name
    ,                         !- Lower Limit Value
    ,                         !- Upper Limit Value
    Continuous,               !- Numeric Type
    temperature;              !- Unit Type

ScheduleTypeLimits,
    TEMPERATURE 47,           !- Name
    ,                         !- Lower Limit Value
    ,                         !- Upper Limit Value
    Continuous,               !- Numeric Type
    temperature;              !- Unit Type

ScheduleTypeLimits,
    TEMPERATURE 57,           !- Name
    ,                         !- Lower Limit Value
    ,                         !- Upper Limit Value
    Continuous,               !- Numeric Type
    temperature;              !- Unit Type

ScheduleTypeLimits,
    ALWAYS ON DISCRETE LIMITS,    !- Name
    0,                        !- Lower Limit Value
    1,                        !- Upper Limit Value
    Discrete,                 !- Numeric Type
    availability;             !- Unit Type

ScheduleTypeLimits,
    ACTIVITYLEVEL 10,         !- Name
    0,                        !- Lower Limit Value
    ,                         !- Upper Limit Value
    Continuous,               !- Numeric Type
    activitylevel;            !- Unit Type

ScheduleTypeLimits,
    TEMPERATURE 18,           !- Name
    ,                         !- Lower Limit Value
    ,                         !- Upper Limit Value
    Continuous,               !- Numeric Type
    temperature;              !- Unit Type

ScheduleTypeLimits,
    TEMPERATURE 28,           !- Name
    ,                         !- Lower Limit Value
    ,                         !- Upper Limit Value
    Continuous,               !- Numeric Type
    temperature;              !- Unit Type

ScheduleTypeLimits,
    ACTIVITYLEVEL 15,         !- Name
    0,                        !- Lower Limit Value
    ,                         !- Upper Limit Value
    Continuous,               !- Numeric Type
    activitylevel;            !- Unit Type

ScheduleTypeLimits,
    TEMPERATURE 38,           !- Name
    ,                         !- Lower Limit Value
    ,                         !- Upper Limit Value
    Continuous,               !- Numeric Type
    temperature;              !- Unit Type

ScheduleTypeLimits,
    TEMPERATURE 48,           !- Name
    ,                         !- Lower Limit Value
    ,                         !- Upper Limit Value
    Continuous,               !- Numeric Type
    temperature;              !- Unit Type

ScheduleTypeLimits,
    TEMPERATURE 58,           !- Name
    ,                         !- Lower Limit Value
    ,                         !- Upper Limit Value
    Continuous,               !- Numeric Type
    temperature;              !- Unit Type

ScheduleTypeLimits,
    TEMPERATURE 13,           !- Name
    ,                         !- Lower Limit Value
    ,                         !- Upper Limit Value
    Continuous,               !- Numeric Type
    temperature;              !- Unit Type

ScheduleTypeLimits,
    TEMPERATURE 23,           !- Name
    ,                         !- Lower Limit Value
    ,                         !- Upper Limit Value
    Continuous,               !- Numeric Type
    temperature;              !- Unit Type

ScheduleTypeLimits,
    TEMPERATURE 33,           !- Name
    ,                         !- Lower Limit Value
    ,                         !- Upper Limit Value
    Continuous,               !- Numeric Type
    temperature;              !- Unit Type

ScheduleTypeLimits,
    TEMPERATURE 43,           !- Name
    ,                         !- Lower Limit Value
    ,                         !- Upper Limit Value
    Continuous,               !- Numeric Type
    temperature;              !- Unit Type

ScheduleTypeLimits,
    TEMPERATURE 53,           !- Name
    ,                         !- Lower Limit Value
    ,                         !- Upper Limit Value
    Continuous,               !- Numeric Type
    temperature;              !- Unit Type

ScheduleTypeLimits,
    TEMPERATURE 16,           !- Name
    ,                         !- Lower Limit Value
    ,                         !- Upper Limit Value
    Continuous,               !- Numeric Type
    temperature;              !- Unit Type

ScheduleTypeLimits,
    TEMPERATURE 26,           !- Name
    ,                         !- Lower Limit Value
    ,                         !- Upper Limit Value
    Continuous,               !- Numeric Type
    temperature;              !- Unit Type

ScheduleTypeLimits,
    TEMPERATURE 36,           !- Name
    ,                         !- Lower Limit Value
    ,                         !- Upper Limit Value
    Continuous,               !- Numeric Type
    temperature;              !- Unit Type

ScheduleTypeLimits,
    TEMPERATURE 46,           !- Name
    ,                         !- Lower Limit Value
    ,                         !- Upper Limit Value
    Continuous,               !- Numeric Type
    temperature;              !- Unit Type

ScheduleTypeLimits,
    TEMPERATURE 56,           !- Name
    ,                         !- Lower Limit Value
    ,                         !- Upper Limit Value
    Continuous,               !- Numeric Type
    temperature;              !- Unit Type

ScheduleTypeLimits,
    FRACTION,                 !- Name
    0,                        !- Lower Limit Value
    1,                        !- Upper Limit Value
    CONTINUOUS;               !- Numeric Type

ScheduleTypeLimits,
    ACTIVITYLEVEL 11,         !- Name
    0,                        !- Lower Limit Value
    ,                         !- Upper Limit Value
    Continuous,               !- Numeric Type
    activitylevel;            !- Unit Type

ScheduleTypeLimits,
    TEMPERATURE 12,           !- Name
    ,                         !- Lower Limit Value
    ,                         !- Upper Limit Value
    Continuous,               !- Numeric Type
    temperature;              !- Unit Type

ScheduleTypeLimits,
    TEMPERATURE 22,           !- Name
    ,                         !- Lower Limit Value
    ,                         !- Upper Limit Value
    Continuous,               !- Numeric Type
    temperature;              !- Unit Type

ScheduleTypeLimits,
    TEMPERATURE 32,           !- Name
    ,                         !- Lower Limit Value
    ,                         !- Upper Limit Value
    Continuous,               !- Numeric Type
    temperature;              !- Unit Type

ScheduleTypeLimits,
    TEMPERATURE 42,           !- Name
    ,                         !- Lower Limit Value
    ,                         !- Upper Limit Value
    Continuous,               !- Numeric Type
    temperature;              !- Unit Type

ScheduleTypeLimits,
    TEMPERATURE 52,           !- Name
    ,                         !- Lower Limit Value
    ,                         !- Upper Limit Value
    Continuous,               !- Numeric Type
    temperature;              !- Unit Type

ScheduleTypeLimits,
    TEMPERATURE 15,           !- Name
    ,                         !- Lower Limit Value
    ,                         !- Upper Limit Value
    Continuous,               !- Numeric Type
    temperature;              !- Unit Type

ScheduleTypeLimits,
    TEMPERATURE 25,           !- Name
    ,                         !- Lower Limit Value
    ,                         !- Upper Limit Value
    Continuous,               !- Numeric Type
    temperature;              !- Unit Type

ScheduleTypeLimits,
    TEMPERATURE 35,           !- Name
    ,                         !- Lower Limit Value
    ,                         !- Upper Limit Value
    Continuous,               !- Numeric Type
    temperature;              !- Unit Type

ScheduleTypeLimits,
    TEMPERATURE 45,           !- Name
    ,                         !- Lower Limit Value
    ,                         !- Upper Limit Value
    Continuous,               !- Numeric Type
    temperature;              !- Unit Type

ScheduleTypeLimits,
    TEMPERATURE 55,           !- Name
    ,                         !- Lower Limit Value
    ,                         !- Upper Limit Value
    Continuous,               !- Numeric Type
    temperature;              !- Unit Type

ScheduleTypeLimits,
    ACTIVITYLEVEL 12,         !- Name
    0,                        !- Lower Limit Value
    ,                         !- Upper Limit Value
    Continuous,               !- Numeric Type
    activitylevel;            !- Unit Type

ScheduleTypeLimits,
    TEMPERATURE 11,           !- Name
    ,                         !- Lower Limit Value
    ,                         !- Upper Limit Value
    Continuous,               !- Numeric Type
    temperature;              !- Unit Type

ScheduleTypeLimits,
    TEMPERATURE 21,           !- Name
    ,                         !- Lower Limit Value
    ,                         !- Upper Limit Value
    Continuous,               !- Numeric Type
    temperature;              !- Unit Type

ScheduleTypeLimits,
    TEMPERATURE 31,           !- Name
    ,                         !- Lower Limit Value
    ,                         !- Upper Limit Value
    Continuous,               !- Numeric Type
    temperature;              !- Unit Type

ScheduleTypeLimits,
    TEMPERATURE 41,           !- Name
    ,                         !- Lower Limit Value
    ,                         !- Upper Limit Value
    Continuous,               !- Numeric Type
    temperature;              !- Unit Type

ScheduleTypeLimits,
    TEMPERATURE 51,           !- Name
    ,                         !- Lower Limit Value
    ,                         !- Upper Limit Value
    Continuous,               !- Numeric Type
    temperature;              !- Unit Type

ScheduleTypeLimits,
    TEMPERATURE 61,           !- Name
    ,                         !- Lower Limit Value
    ,                         !- Upper Limit Value
    Continuous,               !- Numeric Type
    temperature;              !- Unit Type

ScheduleTypeLimits,
    TEMPERATURE 14,           !- Name
    ,                         !- Lower Limit Value
    ,                         !- Upper Limit Value
    Continuous,               !- Numeric Type
    temperature;              !- Unit Type

ScheduleTypeLimits,
    TEMPERATURE 24,           !- Name
    ,                         !- Lower Limit Value
    ,                         !- Upper Limit Value
    Continuous,               !- Numeric Type
    temperature;              !- Unit Type

ScheduleTypeLimits,
    TEMPERATURE 34,           !- Name
    ,                         !- Lower Limit Value
    ,                         !- Upper Limit Value
    Continuous,               !- Numeric Type
    temperature;              !- Unit Type

ScheduleTypeLimits,
    TEMPERATURE 44,           !- Name
    ,                         !- Lower Limit Value
    ,                         !- Upper Limit Value
    Continuous,               !- Numeric Type
    temperature;              !- Unit Type

ScheduleTypeLimits,
    TEMPERATURE 54,           !- Name
    ,                         !- Lower Limit Value
    ,                         !- Upper Limit Value
    Continuous,               !- Numeric Type
    temperature;              !- Unit Type

ScheduleTypeLimits,
    ON/OFF,                   !- Name
    0,                        !- Lower Limit Value
    1,                        !- Upper Limit Value
    DISCRETE;                 !- Numeric Type
